<?xml version="1.0" encoding="UTF-8"?>

<!-- generated on 2023-12-25 18:28:27 by Eclipse SUMO sumo Version 1.19.0
-->

<configuration xmlns:xsi="http://www.w3.org/2001/XMLSchema-instance" xsi:noNamespaceSchemaLocation="http://sumo.dlr.de/xsd/sumoConfiguration.xsd">

    <input>
        <net-file value="highway_network.net.xml"/>
        <route-files value="highway_project.rou.xml"/>
    </input>

</configuration>
