<?xml version="1.0" encoding="UTF-8"?>

<!-- generated on 2023-12-25 17:51:36 by Eclipse SUMO netedit Version 1.19.0
-->

<routes xmlns:xsi="http://www.w3.org/2001/XMLSchema-instance" xsi:noNamespaceSchemaLocation="http://sumo.dlr.de/xsd/routes_file.xsd">
    <!-- Vehicles, persons and containers (sorted by depart) -->
    <flow id="f_0" begin="0.00" departLane="random" departSpeed="random" color="red" from="before_ramp" to="highway_end" end="16600.00" vehsPerHour="2500"/>
    <flow id="f_1" begin="0.00" departLane="random" departSpeed="random" color="blue" from="before_lights" to="highway_end" end="3600.00" vehsPerHour="1000"/>
</routes>
